[TITLE]
prueba

[JUNCTIONS]
;ID              	Elev        	Demand      	Pattern         
 n1              	0           	0           	                	;
 n2              	0           	0           	                	;
 n3              	0           	0           	                	;
 n4              	0           	0           	                	;
 n5              	0           	0           	                	;
 n6              	0           	0           	                	;
 n7              	0           	0           	                	;
 n8              	0           	0           	                	;
 n9              	0           	0           	                	;
 n10             	4           	0           	                	;
 n11             	4           	0           	                	;
 n12             	5           	0           	                	;
 n13             	4           	0           	                	;
 n14             	5           	0           	                	;
 n16             	0           	0           	                	;
 n17             	0           	0           	                	;
 n18             	0           	0           	                	;
 n19             	0           	0           	                	;
 n20             	0           	0           	                	;
 n21             	0           	0           	                	;
 n22             	0           	0           	                	;
 n23             	0           	0           	                	;
 n24             	0           	0           	                	;
 n25             	0           	0           	                	;
 n26             	0           	0           	                	;
 n27             	0           	0           	                	;
 n28             	0           	0           	                	;
 n29             	0           	0           	                	;
 n30             	0           	0           	                	;
 n31             	0           	0           	                	;
 n32             	0           	0           	                	;
 n33             	0           	0           	                	;
 n34             	0           	0           	                	;
 n35             	0           	0           	                	;
 n36             	0           	0           	                	;
 n37             	0           	0           	                	;
 n38             	0           	0           	                	;
 n39             	0           	0           	                	;
 n40             	0           	0           	                	;
 n41             	0           	0           	                	;
 n42             	0           	0           	                	;
 n43             	0           	0           	                	;
 n44             	0           	0           	                	;
 n45             	0           	0           	                	;
 n46             	0           	0           	                	;
 n47             	0           	0           	                	;
 n48             	0           	0           	                	;
 n49             	0           	0           	                	;
 n50             	0           	0           	                	;
 n51             	0           	0           	                	;
 n52             	0           	0           	                	;
 n53             	0           	0           	                	;
 n54             	0           	0           	                	;
 n55             	0           	0           	                	;
 n56             	0           	0           	                	;
 n57             	0           	0           	                	;
 n58             	0           	0           	                	;
 n59             	0           	0           	                	;
 n60             	0           	0           	                	;
 n61             	0           	0           	                	;
 n62             	0           	0           	                	;
 n63             	0           	0           	                	;
 n64             	0           	0           	                	;
 n65             	0           	0           	                	;
 n66             	0           	0           	                	;
 n67             	0           	0           	                	;
 n68             	0           	0           	                	;
 n69             	0           	0           	                	;
 n70             	0           	0           	                	;
 n71             	0           	0           	                	;
 n72             	0           	0           	                	;
 n74             	0           	0           	                	;
 n75             	0           	0           	                	;
 n76             	0           	0           	                	;
 n77             	0           	0           	                	;
 n78             	0           	0           	                	;
 n79             	0           	0           	                	;
 n80             	0           	0           	                	;
 n81             	0           	0           	                	;
 n82             	0           	0           	                	;
 n83             	0           	0           	                	;
 n84             	0           	0           	                	;
 n85             	0           	0           	                	;
 n86             	0           	0           	                	;
 n87             	0           	0           	                	;
 n88             	0           	0           	                	;
 n89             	0           	0           	                	;
 n90             	0           	0           	                	;
 n91             	0           	0           	                	;
 n92             	0           	0           	                	;
 n93             	0           	0           	                	;
 n94             	0           	0           	                	;
 n95             	0           	0           	                	;
 n96             	0           	0           	                	;
 n97             	0           	0           	                	;
 n98             	0           	0           	                	;
 n100            	0           	0           	                	;
 n101            	0           	0           	                	;
 n102            	0           	0           	                	;
 n103            	0           	0           	                	;
 n104            	0           	0           	                	;
 n106            	0           	0           	                	;
 n107            	0           	0           	                	;
 n108            	0           	0           	                	;
 n109            	0           	0           	                	;
 n111            	0           	0           	                	;
 n112            	0           	0           	                	;
 n113            	0           	0           	                	;
 n114            	0           	0           	                	;
 n115            	0           	0           	                	;
 n116            	0           	0           	                	;
 n117            	0           	0           	                	;
 n118            	0           	0           	                	;
 n119            	0           	0           	                	;
 n120            	0           	0           	                	;
 n121            	0           	0           	                	;
 n122            	0           	0           	                	;
 n123            	0           	0           	                	;
 n124            	0           	0           	                	;
 n125            	0           	0           	                	;
 n126            	0           	0           	                	;
 n127            	0           	0           	                	;
 n128            	0           	0           	                	;
 n129            	0           	0           	                	;
 n130            	0           	0           	                	;
 n131            	0           	0           	                	;
 n132            	0           	0           	                	;
 n134            	0           	0           	                	;
 n135            	0           	0           	                	;
 n136            	0           	0           	                	;
 n137            	0           	0           	                	;
 n138            	0           	0           	                	;
 n139            	0           	0           	                	;
 n140            	0           	0           	                	;
 n141            	0           	0           	                	;
 n142            	0           	0           	                	;
 n143            	0           	0           	                	;
 n144            	0           	0           	                	;
 n145            	0           	0           	                	;
 n146            	0           	0           	                	;
 n147            	0           	0           	                	;
 n148            	0           	0           	                	;
 n149            	0           	0           	                	;
 n150            	0           	0           	                	;
 n151            	0           	0           	                	;
 n152            	0           	0           	                	;
 n153            	0           	0           	                	;
 n154            	0           	0           	                	;
 n155            	0           	0           	                	;
 n156            	0           	0           	                	;
 n157            	0           	0           	                	;
 n161            	0           	0           	                	;
 n164            	0           	0           	                	;
 n165            	0           	0           	                	;
 n166            	0           	0           	                	;
 n167            	0           	0           	                	;
 n169            	0           	0           	                	;
 n171            	0           	0           	                	;
 n172            	0           	0           	                	;
 n173            	0           	0           	                	;
 n174            	0           	0           	                	;
 n175            	0           	0           	                	;
 n176            	0           	0           	                	;
 n177            	0           	0           	                	;
 n178            	0           	0           	                	;
 n179            	0           	0           	                	;
 n180            	0           	0           	                	;
 n181            	0           	0           	                	;
 n182            	0           	0           	                	;
 n184            	0           	0           	                	;
 n185            	0           	0           	                	;
 n186            	0           	0           	                	;
 n187            	0           	0           	                	;
 n188            	0           	0           	                	;
 n189            	0           	0           	                	;
 n190            	0           	0           	                	;
 n191            	0           	0           	                	;
 n192            	0           	0           	                	;
 n193            	0           	0           	                	;
 n194            	0           	0           	                	;
 n195            	0           	0           	                	;
 n196            	0           	0           	                	;
 n197            	0           	0           	                	;
 n198            	0           	0           	                	;
 n199            	0           	0           	                	;
 n201            	0           	0           	                	;
 n202            	0           	0           	                	;
 n203            	0           	0           	                	;
 n204            	0           	0           	                	;
 n205            	0           	0           	                	;
 n206            	0           	0           	                	;
 n207            	0           	0           	                	;
 n208            	0           	0           	                	;
 n209            	0           	0           	                	;
 n210            	0           	0           	                	;
 n211            	0           	0           	                	;
 n212            	0           	0           	                	;
 n213            	0           	0           	                	;
 n214            	0           	0           	                	;
 n215            	0           	0           	                	;
 n216            	0           	0           	                	;
 n217            	0           	0           	                	;
 n218            	0           	0           	                	;
 n219            	0           	0           	                	;
 n220            	0           	0           	                	;
 n221            	0           	0           	                	;
 n222            	0           	0           	                	;
 n223            	0           	0           	                	;
 n224            	0           	0           	                	;
 n225            	0           	0           	                	;
 n226            	0           	0           	                	;
 n227            	0           	0           	                	;
 n228            	0           	0           	                	;
 n229            	0           	0           	                	;
 n230            	0           	0           	                	;
 n231            	0           	0           	                	;
 n232            	0           	0           	                	;
 n233            	0           	0           	                	;
 n234            	0           	0           	                	;
 n235            	0           	0           	                	;
 n236            	0           	0           	                	;
 n237            	0           	0           	                	;
 n238            	0           	0           	                	;
 n239            	0           	0           	                	;
 n240            	0           	0           	                	;
 n241            	0           	0           	                	;
 n242            	0           	0           	                	;
 n243            	0           	0           	                	;
 n244            	0           	0           	                	;
 n245            	0           	0           	                	;
 n246            	0           	0           	                	;
 n247            	0           	0           	                	;
 n248            	0           	0           	                	;
 n249            	0           	0           	                	;
 n250            	0           	0           	                	;
 n251            	0           	0           	                	;
 n252            	0           	0           	                	;
 n253            	0           	0           	                	;
 n254            	0           	0           	                	;
 n255            	0           	0           	                	;
 n256            	0           	0           	                	;
 n257            	0           	0           	                	;
 n258            	0           	0           	                	;
 n259            	0           	0           	                	;
 n260            	0           	0           	                	;
 n261            	0           	0           	                	;
 n262            	0           	0           	                	;
 n263            	0           	0           	                	;
 n264            	0           	0           	                	;
 n265            	0           	0           	                	;
 n266            	0           	0           	                	;
 n269            	0           	0           	                	;
 n270            	0           	0           	                	;
 n278            	0           	0           	                	;
 n280            	0           	0           	                	;
 n283            	0           	0           	                	;
 n286            	0           	0           	                	;
 n287            	0           	0           	                	;
 n288            	0           	0           	                	;
 n291            	0           	0           	                	;
 n292            	0           	0           	                	;
 n295            	0           	0           	                	;
 n297            	0           	0           	                	;
 n298            	0           	0           	                	;
 n301            	0           	0           	                	;
 n303            	0           	0           	                	;
 n306            	0           	0           	                	;
 n307            	0           	0           	                	;
 n309            	0           	0           	                	;
 n311            	0           	0           	                	;
 n312            	0           	0           	                	;
 n313            	0           	0           	                	;
 n314            	0           	0           	                	;
 n315            	0           	0           	                	;
 n316            	0           	0           	                	;
 n317            	0           	0           	                	;
 n319            	0           	0           	                	;
 n320            	0           	0           	                	;
 n321            	0           	0           	                	;
 n322            	0           	0           	                	;
 n323            	0           	0           	                	;
 n324            	0           	0           	                	;
 n325            	0           	0           	                	;
 n326            	0           	0           	                	;
 n327            	0           	0           	                	;
 n328            	0           	0           	                	;
 n329            	0           	0           	                	;
 n330            	0           	0           	                	;
 n331            	0           	0           	                	;
 n332            	5           	0           	                	;
 n333            	0           	0           	                	;
 n334            	0           	0           	                	;
 n335            	0           	0           	                	;
 n336            	0           	0           	                	;
 n337            	0           	0           	                	;
 n338            	0           	0           	                	;
 n339            	0           	0           	                	;
 n340            	0           	0           	                	;
 n341            	0           	0           	                	;
 n342            	0           	0           	                	;
 n343            	0           	0           	                	;
 n344            	0           	0           	                	;
 n345            	0           	0           	                	;
 n346            	0           	0           	                	;
 n347            	0           	0           	                	;
 n348            	0           	0           	                	;
 n349            	0           	0           	                	;
 n350            	0           	0           	                	;
 n351            	0           	0           	                	;
 n353            	0           	0           	                	;
 n354            	0           	0           	                	;
 n355            	0           	0           	                	;
 n356            	0           	0           	                	;
 n357            	0           	0           	                	;
 n359            	0           	0           	                	;
 n360            	0           	0           	                	;
 n361            	0           	0           	                	;
 n362            	0           	0           	                	;
 n363            	0           	0           	                	;
 n364            	0           	0           	                	;
 n365            	0           	0           	                	;
 n366            	0           	0           	                	;
 n367            	0           	0           	                	;
 n368            	0           	0           	                	;
 n369            	0           	0           	                	;
 n370            	0           	0           	                	;
 n371            	0           	0           	                	;
 n373            	0           	0           	                	;
 n374            	0           	0           	                	;
 n375            	0           	0           	                	;
 n376            	0           	0           	                	;
 n377            	0           	0           	                	;
 n378            	0           	0           	                	;
 n379            	0           	0           	                	;
 n380            	0           	0           	                	;
 n381            	0           	0           	                	;
 n382            	0           	0           	                	;
 n383            	0           	0           	                	;
 n385            	0           	0           	                	;
 n386            	0           	0           	                	;
 n387            	0           	0           	                	;
 n388            	0           	0           	                	;
 n389            	0           	0           	                	;
 n391            	0           	0           	                	;
 n392            	0           	0           	                	;
 n393            	0           	0           	                	;
 n394            	0           	0           	                	;
 n395            	0           	0           	                	;
 n396            	0           	0           	                	;
 n397            	0           	0           	                	;
 n398            	0           	0           	                	;
 n399            	0           	0           	                	;
 n400            	0           	0           	                	;
 n401            	0           	0           	                	;
 n402            	0           	0           	                	;
 n403            	0           	0           	                	;
 n404            	0           	0           	                	;
 n405            	0           	0           	                	;
 n406            	0           	0           	                	;
 n407            	0           	0           	                	;
 n408            	0           	0           	                	;
 n409            	0           	0           	                	;
 n410            	0           	0           	                	;
 n411            	0           	0           	                	;
 n412            	0           	0           	                	;
 n413            	0           	0           	                	;
 n414            	0           	0           	                	;
 n415            	0           	0           	                	;
 n416            	0           	0           	                	;
 n417            	0           	0           	                	;
 n418            	0           	0           	                	;
 n419            	0           	0           	                	;
 n420            	0           	0           	                	;
 n421            	0           	0           	                	;
 n422            	0           	0           	                	;
 n423            	0           	0           	                	;
 n424            	0           	0           	                	;
 n425            	0           	0           	                	;
 n426            	0           	0           	                	;
 n427            	0           	0           	                	;
 n428            	0           	0           	                	;
 n429            	0           	0           	                	;
 n430            	0           	0           	                	;
 n431            	0           	0           	                	;
 n432            	0           	0           	                	;
 n433            	0           	0           	                	;
 n434            	0           	0           	                	;
 n435            	0           	0           	                	;
 n436            	0           	0           	                	;
 n437            	2           	0           	                	;
 n438            	0           	0           	                	;
 n439            	0           	0           	                	;
 n440            	0           	0           	                	;
 n441            	0           	0           	                	;
 n442            	0           	0           	                	;
 n443            	0           	0           	                	;
 n444            	0           	0           	                	;
 n445            	0           	0           	                	;
 n446            	0           	0           	                	;
 n447            	0           	0           	                	;
 n448            	0           	0           	                	;
 n449            	0           	0           	                	;
 n450            	0           	0           	                	;
 n451            	0           	0           	                	;
 n452            	0           	0           	                	;
 n453            	5           	0           	                	;
 n454            	9           	0           	                	;
 n455            	5           	0           	                	;
 n456            	0           	0           	                	;
 n457            	0           	0           	                	;
 n458            	0           	0           	                	;
 n460            	0           	0           	                	;
 n461            	0           	0           	                	;
 n462            	0           	0           	                	;
 n463            	0           	0           	                	;
 n464            	0           	0           	                	;
 n465            	0           	0           	                	;
 n466            	0           	0           	                	;
 n467            	0           	0           	                	;
 n468            	0           	0           	                	;
 n469            	0           	0           	                	;
 n470            	0           	0           	                	;
 n471            	0           	0           	                	;
 n472            	0           	0           	                	;
 n473            	0           	0           	                	;
 n474            	0           	0           	                	;
 n475            	0           	0           	                	;
 n476            	0           	0           	                	;
 n477            	0           	0           	                	;
 n478            	0           	0           	                	;
 n479            	0           	0           	                	;
 n481            	0           	0           	                	;
 n482            	0           	0           	                	;
 n483            	0           	0           	                	;
 n484            	0           	0           	                	;
 n485            	0           	0           	                	;
 n486            	0           	0           	                	;
 n487            	0           	0           	                	;
 n488            	0           	2           	                	;
 n489            	4           	0           	                	;
 n490            	4           	0           	                	;
 n491            	0           	0           	                	;
 n492            	0           	0           	                	;
 n494            	0           	0           	                	;
 n495            	0           	0           	                	;
 n496            	0           	0           	                	;
 n497            	0           	0           	                	;
 n498            	0           	0           	                	;
 n499            	0           	0           	                	;
 n500            	0           	0           	                	;
 n501            	0           	0           	                	;
 n502            	0           	0           	                	;
 n505            	0           	0           	                	;
 n506            	1           	0           	                	;
 n507            	1           	0           	                	;
 n508            	0           	0           	                	;
 n509            	0           	0           	                	;
 n510            	0           	0           	                	;
 n511            	0           	0           	                	;
 n512            	0           	0           	                	;
 n513            	0           	0           	                	;
 n514            	0           	0           	                	;
 n515            	0           	0           	                	;
 n516            	0           	0           	                	;
 n517            	0           	0           	                	;
 n518            	0           	0           	                	;
 n519            	0           	0           	                	;